** MATERIALS
** 
*Material, name=QP1000
*Depvar, delete=30
     32,
*User Material, constants=3248
** Young's Modulus, Poisson Ratio
 210000,        0.3,          0.0,         0.0,            0.0,            0.0,         0.0,   0.
** Reference temperature, three parameters for temperature softening, Dens, Heat capacity,
** Specific heat fraction  
 298.15,        1.0,          0.0,         0.0,       7.85e-09,    460000000.0,         0.9,   0.
** 4 parameters for strain rate hardening, User defined increment No.
    1.0,        0.0,          1.0,         0.0,          500.0,            0.0,         0.0,   0.
** Cleavage fracuture stress, 4 parameters for cleavage fracture locus 
 50000.0,       4.96,         6.42,        0.11,           1.55,            0.0,         0.0,   0.
** Cut-off value, Damage energy dissipation, 6 parameters for ductile damage initiation locus, 
  -0.33333333,  50.0, 1.71, 1.08, 0.71, 0.25, 1.71, 1.08
** 4 parameters for ductile fracture locus    
 1.00,          0.0,         1.00,         0.0,            0.0,            0.0,         0.0,   0.
** Flow curves along 0, 45, 90 and biaxial; r-values along 0, 45 and 90
0.0,   446.5182,316.0712,397.3589,269.6082,9.3842,0.7758,0.7384
0.0001,460.2985,410.4358,477.7578,309.1089,0.1137,0.7764,0.7389
0.0002,474.5027,470.4491,527.5579,345.4648,0.2071,0.777,0.7394
0.0003,489.1437,518.0826,568.0613,378.9495,0.2839,0.7776,0.7399
0.0004,504.235,556.6219,601.771,409.8099,0.3469,0.7782,0.7405
0.0005,519.7903,588.0821,630.1037,438.2701,0.3986,0.7788,0.741
0.0006,535.8238,613.9234,654.062,464.5334,0.4411,0.7794,0.7415
0.0007,552.3503,635.2641,674.4166,488.7851,0.476,0.78,0.742
0.0008,569.3847,652.9812,691.7814,511.1936,0.5047,0.7806,0.7425
0.0009,586.9428,667.7712,706.6554,531.9128,0.5282,0.7812,0.743
0.001,605.0404,800.496,863.0778,995.2305,0.5475,0.7818,0.7435
0.002,819.594,807.364,868.3484,997.2035,0.624,0.7823,0.744
0.003,797.9414,814.0622,873.5459,999.1797,0.6577,0.7829,0.7445
0.004,812.547,820.601,878.6725,1001.1592,0.661,0.7835,0.745
0.005,824.6852,826.9895,883.73,1003.1419,0.6643,0.7841,0.7455
0.006,835.2373,833.2363,888.7203,1005.1279,0.6674,0.7847,0.7461
0.007,844.6784,839.3489,893.6452,1007.1171,0.6705,0.7852,0.7465
0.008,853.2947,845.3343,898.5063,1009.1096,0.6736,0.7858,0.747
0.009,861.2723,851.1989,903.3053,1011.1054,0.6766,0.7858,0.747
0.01,868.739,856.9486,908.0436,1013.1044,0.6795,0.7906,0.7512
** ... 380 like lines cut
*Density
 7.85e-09,